OPT_V10/Two_days_first_run/network_debug.txt
Pandapower Network Debug Info
==================================================

BUS:
          name  vn_kv type  zone  in_service   geo
0        Bus 8    0.4    b  None        True  None
1        Bus 9    0.4    b  None        True  None
2       Bus 10    0.4    b  None        True  None
3       Bus 11    0.4    b  None        True  None
4       Bus 16    0.4    b  None        True  None
5       Bus 17    0.4    b  None        True  None
6       Bus 18    0.4    b  None        True  None
7       Bus 19    0.4    b  None        True  None
8       Bus 20    0.4    b  None        True  None
9       Bus 21   15.0    b  None        True  None
10      Bus 22   15.0    b  None        True  None
11      Bus 23   15.0    b  None        True  None
12      Bus 24   15.0    b  None        True  None
13      Bus 25   15.0    b  None        True  None
14      Bus 26   15.0    b  None        True  None
15    Sub MV 2   15.0    b  None        True  None
16    Sub LV 2    0.4    b  None        True  None
17    Sub MV 5   15.0    b  None        True  None
18    Sub LV 5    0.4    b  None        True  None
19  Slack HV 0   70.0    b  None        True  None
20  Slack MV 0   15.0    b  None        True  None
21  Slack HV 1   70.0    b  None        True  None
22  Slack MV 1   15.0    b  None        True  None
--------------------------------------------------

LOAD:
            name  bus          p_mw    q_mvar  const_z_percent  const_i_percent  sn_mva  scaling  in_service type
0      Load 8 T1    0 -1.799194e-03  0.001015              0.0              0.0     NaN      1.0        True  wye
1      Load 8 T2    0  8.218091e-04  0.000989              0.0              0.0     NaN      1.0        True  wye
2      Load 8 T3    0  1.090265e-03  0.001030              0.0              0.0     NaN      1.0        True  wye
3      Load 8 T4    0  9.935447e-04  0.000964              0.0              0.0     NaN      1.0        True  wye
4      Load 8 T5    0  1.176689e-03  0.000828              0.0              0.0     NaN      1.0        True  wye
5      Load 8 T6    0  9.627418e-04  0.001038              0.0              0.0     NaN      1.0        True  wye
6      Load 8 T7    0  1.167697e-03  0.000939              0.0              0.0     NaN      1.0        True  wye
7      Load 8 T8    0  7.529479e-04  0.000978              0.0              0.0     NaN      1.0        True  wye
8      Load 8 T9    0  2.329051e-05  0.001078              0.0              0.0     NaN      1.0        True  wye
9     Load 8 T10    0 -1.113017e-03  0.001166              0.0              0.0     NaN      1.0        True  wye
10    Load 8 T11    0 -1.930816e-03  0.001115              0.0              0.0     NaN      1.0        True  wye
11    Load 8 T12    0 -2.052096e-03  0.001189              0.0              0.0     NaN      1.0        True  wye
12    Load 8 T13    0 -1.758000e-03  0.001080              0.0              0.0     NaN      1.0        True  wye
13    Load 8 T14    0 -1.408539e-03  0.000965              0.0              0.0     NaN      1.0        True  wye
14    Load 8 T15    0 -3.225513e-04  0.000919              0.0              0.0     NaN      1.0        True  wye
15    Load 8 T16    0  6.695899e-04  0.001071              0.0              0.0     NaN      1.0        True  wye
16    Load 8 T17    0  8.277474e-04  0.001093              0.0              0.0     NaN      1.0        True  wye
17    Load 8 T18    0  8.681176e-04  0.000948              0.0              0.0     NaN      1.0        True  wye
18    Load 8 T19    0  8.922506e-04  0.000875              0.0              0.0     NaN      1.0        True  wye
19    Load 8 T20    0  9.097452e-04  0.001185              0.0              0.0     NaN      1.0        True  wye
20    Load 8 T21    0  1.111256e-03  0.001120              0.0              0.0     NaN      1.0        True  wye
21    Load 8 T22    0  9.664003e-04  0.000960              0.0              0.0     NaN      1.0        True  wye
22    Load 8 T23    0  1.142975e-03  0.000840              0.0              0.0     NaN      1.0        True  wye
23    Load 8 T24    0  1.159399e-03  0.000835              0.0              0.0     NaN      1.0        True  wye
24    Load 8 T25    0  1.158084e-03  0.000970              0.0              0.0     NaN      1.0        True  wye
25    Load 8 T26    0  1.179070e-03  0.001073              0.0              0.0     NaN      1.0        True  wye
26    Load 8 T27    0  1.030347e-03  0.000869              0.0              0.0     NaN      1.0        True  wye
27    Load 8 T28    0  1.068471e-03  0.001073              0.0              0.0     NaN      1.0        True  wye
28    Load 8 T29    0  1.152602e-03  0.001137              0.0              0.0     NaN      1.0        True  wye
29    Load 8 T30    0  1.017482e-03  0.001194              0.0              0.0     NaN      1.0        True  wye
30    Load 8 T31    0  8.569144e-04  0.000858              0.0              0.0     NaN      1.0        True  wye
31    Load 8 T32    0  8.991295e-04  0.000968              0.0              0.0     NaN      1.0        True  wye
32    Load 8 T33    0 -9.473805e-05  0.000931              0.0              0.0     NaN      1.0        True  wye
33    Load 8 T34    0 -1.135177e-03  0.001090              0.0              0.0     NaN      1.0        True  wye
34    Load 8 T35    0 -1.901646e-03  0.001173              0.0              0.0     NaN      1.0        True  wye
35    Load 8 T36    0 -1.874912e-03  0.000831              0.0              0.0     NaN      1.0        True  wye
36    Load 8 T37    0 -1.527000e-03  0.000836              0.0              0.0     NaN      1.0        True  wye
37    Load 8 T38    0 -1.055643e-03  0.001094              0.0              0.0     NaN      1.0        True  wye
38    Load 8 T39    0 -1.556978e-04  0.001194              0.0              0.0     NaN      1.0        True  wye
39    Load 8 T40    0  8.329001e-04  0.000874              0.0              0.0     NaN      1.0        True  wye
40    Load 8 T41    0  8.113821e-04  0.001108              0.0              0.0     NaN      1.0        True  wye
41    Load 8 T42    0  8.017142e-04  0.000859              0.0              0.0     NaN      1.0        True  wye
42    Load 8 T43    0  1.061948e-03  0.001189              0.0              0.0     NaN      1.0        True  wye
43    Load 8 T44    0  1.011848e-03  0.001010              0.0              0.0     NaN      1.0        True  wye
44    Load 8 T45    0  9.826743e-04  0.000971              0.0              0.0     NaN      1.0        True  wye
45    Load 8 T46    0  8.686214e-04  0.000912              0.0              0.0     NaN      1.0        True  wye
46    Load 8 T47    0  8.493207e-04  0.000870              0.0              0.0     NaN      1.0        True  wye
47    Load 8 T48    0  8.720084e-04  0.000816              0.0              0.0     NaN      1.0        True  wye
48     Load 9 T1    1 -1.965297e-03  0.001654              0.0              0.0     NaN      1.0        True  wye
49     Load 9 T2    1  1.225258e-03  0.001821              0.0              0.0     NaN      1.0        True  wye
50     Load 9 T3    1  1.629166e-03  0.002126              0.0              0.0     NaN      1.0        True  wye
51     Load 9 T4    1  1.610923e-03  0.002216              0.0              0.0     NaN      1.0        True  wye
52     Load 9 T5    1  1.567605e-03  0.001796              0.0              0.0     NaN      1.0        True  wye
53     Load 9 T6    1  1.473509e-03  0.001830              0.0              0.0     NaN      1.0        True  wye
54     Load 9 T7    1  1.765734e-03  0.001890              0.0              0.0     NaN      1.0        True  wye
55     Load 9 T8    1  1.475199e-03  0.001968              0.0              0.0     NaN      1.0        True  wye
56     Load 9 T9    1 -2.444580e-04  0.001740              0.0              0.0     NaN      1.0        True  wye
57    Load 9 T10    1 -1.271118e-03  0.001986              0.0              0.0     NaN      1.0        True  wye
58    Load 9 T11    1 -1.819746e-03  0.001662              0.0              0.0     NaN      1.0        True  wye
59    Load 9 T12    1 -1.983135e-03  0.002160              0.0              0.0     NaN      1.0        True  wye
60    Load 9 T13    1 -2.319910e-03  0.002371              0.0              0.0     NaN      1.0        True  wye
61    Load 9 T14    1 -1.061105e-03  0.001844              0.0              0.0     NaN      1.0        True  wye
62    Load 9 T15    1  1.080903e-04  0.002250              0.0              0.0     NaN      1.0        True  wye
63    Load 9 T16    1  1.443092e-03  0.001776              0.0              0.0     NaN      1.0        True  wye
64    Load 9 T17    1  1.660628e-03  0.001820              0.0              0.0     NaN      1.0        True  wye
65    Load 9 T18    1  1.386385e-03  0.002250              0.0              0.0     NaN      1.0        True  wye
66    Load 9 T19    1  1.319922e-03  0.001920              0.0              0.0     NaN      1.0        True  wye
67    Load 9 T20    1  1.710445e-03  0.002122              0.0              0.0     NaN      1.0        True  wye
68    Load 9 T21    1  1.535060e-03  0.002347              0.0              0.0     NaN      1.0        True  wye
69    Load 9 T22    1  1.348381e-03  0.002369              0.0              0.0     NaN      1.0        True  wye
70    Load 9 T23    1  1.565966e-03  0.001768              0.0              0.0     NaN      1.0        True  wye
71    Load 9 T24    1  1.441700e-03  0.002120              0.0              0.0     NaN      1.0        True  wye
72    Load 9 T25    1  1.235458e-03  0.001834              0.0              0.0     NaN      1.0        True  wye
73    Load 9 T26    1  1.562880e-03  0.002381              0.0              0.0     NaN      1.0        True  wye
74    Load 9 T27    1  1.653023e-03  0.001625              0.0              0.0     NaN      1.0        True  wye
75    Load 9 T28    1  1.406604e-03  0.001925              0.0              0.0     NaN      1.0        True  wye
76    Load 9 T29    1  1.284054e-03  0.001926              0.0              0.0     NaN      1.0        True  wye
77    Load 9 T30    1  1.760945e-03  0.001609              0.0              0.0     NaN      1.0        True  wye
78    Load 9 T31    1  1.623009e-03  0.002171              0.0              0.0     NaN      1.0        True  wye
79    Load 9 T32    1  1.109964e-03  0.001658              0.0              0.0     NaN      1.0        True  wye
80    Load 9 T33    1  6.441650e-05  0.002207              0.0              0.0     NaN      1.0        True  wye
81    Load 9 T34    1 -9.344107e-04  0.002008              0.0              0.0     NaN      1.0        True  wye
82    Load 9 T35    1 -2.221600e-03  0.002168              0.0              0.0     NaN      1.0        True  wye
83    Load 9 T36    1 -1.838163e-03  0.001618              0.0              0.0     NaN      1.0        True  wye
84    Load 9 T37    1 -1.739939e-03  0.002200              0.0              0.0     NaN      1.0        True  wye
85    Load 9 T38    1 -1.303825e-03  0.001947              0.0              0.0     NaN      1.0        True  wye
86    Load 9 T39    1  2.566792e-04  0.002200              0.0              0.0     NaN      1.0        True  wye
87    Load 9 T40    1  1.334217e-03  0.002091              0.0              0.0     NaN      1.0        True  wye
88    Load 9 T41    1  1.482301e-03  0.001685              0.0              0.0     NaN      1.0        True  wye
89    Load 9 T42    1  1.260050e-03  0.002332              0.0              0.0     NaN      1.0        True  wye
90    Load 9 T43    1  1.361667e-03  0.001837              0.0              0.0     NaN      1.0        True  wye
91    Load 9 T44    1  1.558980e-03  0.002010              0.0              0.0     NaN      1.0        True  wye
92    Load 9 T45    1  1.280135e-03  0.001839              0.0              0.0     NaN      1.0        True  wye
93    Load 9 T46    1  1.542958e-03  0.002134              0.0              0.0     NaN      1.0        True  wye
94    Load 9 T47    1  1.224960e-03  0.001970              0.0              0.0     NaN      1.0        True  wye
95    Load 9 T48    1  1.508042e-03  0.002025              0.0              0.0     NaN      1.0        True  wye
96    Load 10 T1    2 -1.221618e-03  0.003173              0.0              0.0     NaN      1.0        True  wye
97    Load 10 T2    2  1.757727e-03  0.003238              0.0              0.0     NaN      1.0        True  wye
98    Load 10 T3    2  1.754114e-03  0.003169              0.0              0.0     NaN      1.0        True  wye
99    Load 10 T4    2  1.848676e-03  0.003111              0.0              0.0     NaN      1.0        True  wye
100   Load 10 T5    2  1.921240e-03  0.003073              0.0              0.0     NaN      1.0        True  wye
101   Load 10 T6    2  1.802618e-03  0.003234              0.0              0.0     NaN      1.0        True  wye
102   Load 10 T7    2  1.788184e-03  0.003178              0.0              0.0     NaN      1.0        True  wye
103   Load 10 T8    2  2.250166e-03  0.002765              0.0              0.0     NaN      1.0        True  wye
104   Load 10 T9    2  9.381032e-04  0.002835              0.0              0.0     NaN      1.0        True  wye
105  Load 10 T10    2 -3.086996e-04  0.002839              0.0              0.0     NaN      1.0        True  wye
106  Load 10 T11    2 -7.669714e-04  0.003351              0.0              0.0     NaN      1.0        True  wye
107  Load 10 T12    2 -9.699364e-04  0.002854              0.0              0.0     NaN      1.0        True  wye
108  Load 10 T13    2 -1.034183e-03  0.002411              0.0              0.0     NaN      1.0        True  wye
109  Load 10 T14    2 -3.748475e-04  0.002787              0.0              0.0     NaN      1.0        True  wye
110  Load 10 T15    2  6.845341e-04  0.002813              0.0              0.0     NaN      1.0        True  wye
111  Load 10 T16    2  1.961888e-03  0.003424              0.0              0.0     NaN      1.0        True  wye
112  Load 10 T17    2  1.980802e-03  0.003368              0.0              0.0     NaN      1.0        True  wye
113  Load 10 T18    2  1.634437e-03  0.003373              0.0              0.0     NaN      1.0        True  wye
114  Load 10 T19    2  1.969425e-03  0.003427              0.0              0.0     NaN      1.0        True  wye
115  Load 10 T20    2  2.362869e-03  0.003254              0.0              0.0     NaN      1.0        True  wye
116  Load 10 T21    2  1.801645e-03  0.003158              0.0              0.0     NaN      1.0        True  wye
117  Load 10 T22    2  2.120837e-03  0.003421              0.0              0.0     NaN      1.0        True  wye
118  Load 10 T23    2  2.045170e-03  0.003128              0.0              0.0     NaN      1.0        True  wye
119  Load 10 T24    2  2.199698e-03  0.003360              0.0              0.0     NaN      1.0        True  wye
120  Load 10 T25    2  1.672439e-03  0.003221              0.0              0.0     NaN      1.0        True  wye
121  Load 10 T26    2  2.295107e-03  0.003403              0.0              0.0     NaN      1.0        True  wye
122  Load 10 T27    2  2.325977e-03  0.003447              0.0              0.0     NaN      1.0        True  wye
123  Load 10 T28    2  2.265256e-03  0.002421              0.0              0.0     NaN      1.0        True  wye
124  Load 10 T29    2  1.689517e-03  0.002998              0.0              0.0     NaN      1.0        True  wye
125  Load 10 T30    2  1.951364e-03  0.003212              0.0              0.0     NaN      1.0        True  wye
126  Load 10 T31    2  1.901283e-03  0.002522              0.0              0.0     NaN      1.0        True  wye
127  Load 10 T32    2  1.619629e-03  0.002441              0.0              0.0     NaN      1.0        True  wye
128  Load 10 T33    2  6.457625e-04  0.003122              0.0              0.0     NaN      1.0        True  wye
129  Load 10 T34    2 -3.016635e-04  0.002835              0.0              0.0     NaN      1.0        True  wye
130  Load 10 T35    2 -7.150470e-04  0.003124              0.0              0.0     NaN      1.0        True  wye
131  Load 10 T36    2 -5.623381e-04  0.002433              0.0              0.0     NaN      1.0        True  wye
132  Load 10 T37    2 -7.684745e-04  0.002476              0.0              0.0     NaN      1.0        True  wye
133  Load 10 T38    2 -2.241946e-04  0.002692              0.0              0.0     NaN      1.0        True  wye
134  Load 10 T39    2  8.376760e-04  0.003228              0.0              0.0     NaN      1.0        True  wye
135  Load 10 T40    2  1.557368e-03  0.003528              0.0              0.0     NaN      1.0        True  wye
136  Load 10 T41    2  1.917836e-03  0.003128              0.0              0.0     NaN      1.0        True  wye
137  Load 10 T42    2  1.979746e-03  0.002993              0.0              0.0     NaN      1.0        True  wye
138  Load 10 T43    2  1.637087e-03  0.003159              0.0              0.0     NaN      1.0        True  wye
139  Load 10 T44    2  2.152470e-03  0.003370              0.0              0.0     NaN      1.0        True  wye
140  Load 10 T45    2  1.696855e-03  0.003146              0.0              0.0     NaN      1.0        True  wye
141  Load 10 T46    2  2.215978e-03  0.003093              0.0              0.0     NaN      1.0        True  wye
142  Load 10 T47    2  2.168545e-03  0.002618              0.0              0.0     NaN      1.0        True  wye
143  Load 10 T48    2  2.010041e-03  0.003435              0.0              0.0     NaN      1.0        True  wye
144   Load 11 T1    3 -5.214386e-04  0.004254              0.0              0.0     NaN      1.0        True  wye
145   Load 11 T2    3  2.866579e-03  0.004778              0.0              0.0     NaN      1.0        True  wye
146   Load 11 T3    3  2.968264e-03  0.004008              0.0              0.0     NaN      1.0        True  wye
147   Load 11 T4    3  2.824566e-03  0.004662              0.0              0.0     NaN      1.0        True  wye
148   Load 11 T5    3  2.541770e-03  0.003853              0.0              0.0     NaN      1.0        True  wye
149   Load 11 T6    3  2.139401e-03  0.004760              0.0              0.0     NaN      1.0        True  wye
150   Load 11 T7    3  2.628775e-03  0.004221              0.0              0.0     NaN      1.0        True  wye
151   Load 11 T8    3  2.826945e-03  0.003437              0.0              0.0     NaN      1.0        True  wye
152   Load 11 T9    3  1.231233e-03  0.003924              0.0              0.0     NaN      1.0        True  wye
153  Load 11 T10    3 -2.001292e-04  0.004043              0.0              0.0     NaN      1.0        True  wye
154  Load 11 T11    3 -5.686498e-04  0.003380              0.0              0.0     NaN      1.0        True  wye
155  Load 11 T12    3 -1.104194e-03  0.004293              0.0              0.0     NaN      1.0        True  wye
156  Load 11 T13    3 -4.058949e-04  0.003794              0.0              0.0     NaN      1.0        True  wye
157  Load 11 T14    3 -1.373524e-04  0.003662              0.0              0.0     NaN      1.0        True  wye
158  Load 11 T15    3  8.674544e-04  0.004286              0.0              0.0     NaN      1.0        True  wye
159  Load 11 T16    3  2.655664e-03  0.004615              0.0              0.0     NaN      1.0        True  wye
160  Load 11 T17    3  2.360801e-03  0.003495              0.0              0.0     NaN      1.0        True  wye
161  Load 11 T18    3  2.087403e-03  0.003318              0.0              0.0     NaN      1.0        True  wye
162  Load 11 T19    3  2.303137e-03  0.003987              0.0              0.0     NaN      1.0        True  wye
163  Load 11 T20    3  2.602756e-03  0.004330              0.0              0.0     NaN      1.0        True  wye
164  Load 11 T21    3  2.901890e-03  0.004800              0.0              0.0     NaN      1.0        True  wye
165  Load 11 T22    3  2.748368e-03  0.003648              0.0              0.0     NaN      1.0        True  wye
166  Load 11 T23    3  2.048375e-03  0.004022              0.0              0.0     NaN      1.0        True  wye
167  Load 11 T24    3  2.450007e-03  0.004170              0.0              0.0     NaN      1.0        True  wye
168  Load 11 T25    3  2.364325e-03  0.004590              0.0              0.0     NaN      1.0        True  wye
169  Load 11 T26    3  2.966038e-03  0.003871              0.0              0.0     NaN      1.0        True  wye
170  Load 11 T27    3  2.674690e-03  0.004328              0.0              0.0     NaN      1.0        True  wye
171  Load 11 T28    3  2.167405e-03  0.004191              0.0              0.0     NaN      1.0        True  wye
172  Load 11 T29    3  2.954896e-03  0.004215              0.0              0.0     NaN      1.0        True  wye
173  Load 11 T30    3  2.289145e-03  0.003612              0.0              0.0     NaN      1.0        True  wye
174  Load 11 T31    3  2.612266e-03  0.003364              0.0              0.0     NaN      1.0        True  wye
175  Load 11 T32    3  1.961199e-03  0.003234              0.0              0.0     NaN      1.0        True  wye
176  Load 11 T33    3  9.635442e-04  0.004720              0.0              0.0     NaN      1.0        True  wye
177  Load 11 T34    3  2.715642e-04  0.004227              0.0              0.0     NaN      1.0        True  wye
178  Load 11 T35    3 -3.835260e-04  0.004386              0.0              0.0     NaN      1.0        True  wye
179  Load 11 T36    3 -7.304257e-04  0.004060              0.0              0.0     NaN      1.0        True  wye
180  Load 11 T37    3 -7.494325e-04  0.003720              0.0              0.0     NaN      1.0        True  wye
181  Load 11 T38    3  2.776448e-04  0.004684              0.0              0.0     NaN      1.0        True  wye
182  Load 11 T39    3  1.021574e-03  0.004532              0.0              0.0     NaN      1.0        True  wye
183  Load 11 T40    3  2.715280e-03  0.004150              0.0              0.0     NaN      1.0        True  wye
184  Load 11 T41    3  2.593914e-03  0.003606              0.0              0.0     NaN      1.0        True  wye
185  Load 11 T42    3  2.174577e-03  0.004598              0.0              0.0     NaN      1.0        True  wye
186  Load 11 T43    3  2.934466e-03  0.003345              0.0              0.0     NaN      1.0        True  wye
187  Load 11 T44    3  2.549171e-03  0.004375              0.0              0.0     NaN      1.0        True  wye
188  Load 11 T45    3  2.775841e-03  0.003896              0.0              0.0     NaN      1.0        True  wye
189  Load 11 T46    3  2.888821e-03  0.003929              0.0              0.0     NaN      1.0        True  wye
190  Load 11 T47    3  2.453453e-03  0.003945              0.0              0.0     NaN      1.0        True  wye
191  Load 11 T48    3  2.532373e-03  0.003961              0.0              0.0     NaN      1.0        True  wye
192   Load 16 T1    4 -3.750366e-04  0.004243              0.0              0.0     NaN      1.0        True  wye
193   Load 16 T2    4  2.477923e-03  0.004714              0.0              0.0     NaN      1.0        True  wye
194   Load 16 T3    4  3.428224e-03  0.005601              0.0              0.0     NaN      1.0        True  wye
195   Load 16 T4    4  3.367606e-03  0.005195              0.0              0.0     NaN      1.0        True  wye
196   Load 16 T5    4  2.893779e-03  0.004113              0.0              0.0     NaN      1.0        True  wye
197   Load 16 T6    4  3.183543e-03  0.004217              0.0              0.0     NaN      1.0        True  wye
198   Load 16 T7    4  2.938893e-03  0.004790              0.0              0.0     NaN      1.0        True  wye
199   Load 16 T8    4  3.042268e-03  0.004881              0.0              0.0     NaN      1.0        True  wye
...

EXT_GRID:
        name  bus  vm_pu  va_degree  slack_weight  in_service
0  ExtGrid 0   19    1.0        0.0           1.0        True
1  ExtGrid 1   21    1.0        0.0           1.0        True
--------------------------------------------------

LINE:
       name std_type  from_bus  to_bus  length_km  r_ohm_per_km  x_ohm_per_km  c_nf_per_km  g_us_per_km  max_i_ka   df  parallel  type  in_service   geo
0    Line 0     None        20      15   0.400000        0.5502         0.429          0.0          0.0      0.23  1.0         1  None        True  None
1    Line 7     None        22      17   1.100000        0.5502         0.429          0.0          0.0      0.23  1.0         1  None        True  None
2   Line 10     None        15      11   0.565685        0.5502         0.429          0.0          0.0      0.23  1.0         1  None        True  None
3   Line 17     None        17      12   0.141421        0.5502         0.429          0.0          0.0      0.23  1.0         1  None        True  None
4   Line 19     None        17      14   0.223607        0.5502         0.429          0.0          0.0      0.23  1.0         1  None        True  None
5   Line 20     None        16       0   0.136015        0.5502         0.429          0.0          0.0      0.23  1.0         1  None        True  None
6   Line 34     None        18       5   0.225610        0.5502         0.429          0.0          0.0      0.23  1.0         1  None        True  None
7   Line 36     None        18       7   0.196469        0.5502         0.429          0.0          0.0      0.23  1.0         1  None        True  None
8   Line 37     None        18       8   0.050000        0.5502         0.429          0.0          0.0      0.23  1.0         1  None        True  None
9   Line 38     None        10       9   0.141421        0.5502         0.429          0.0          0.0      0.23  1.0         1  None        True  None
10  Line 40     None        11      10   0.200000        0.5502         0.429          0.0          0.0      0.23  1.0         1  None        True  None
11  Line 43     None        14      13   0.200000        0.5502         0.429          0.0          0.0      0.23  1.0         1  None        True  None
12  Line 44     None         1       0   0.172047        0.5502         0.429          0.0          0.0      0.23  1.0         1  None        True  None
13  Line 46     None         3       0   0.194165        0.5502         0.429          0.0          0.0      0.23  1.0         1  None        True  None
14  Line 47     None         2       1   0.263059        0.5502         0.429          0.0          0.0      0.23  1.0         1  None        True  None
15  Line 52     None         8       4   0.353836        0.5502         0.429          0.0          0.0      0.23  1.0         1  None        True  None
16  Line 53     None         6       5   0.253180        0.5502         0.429          0.0          0.0      0.23  1.0         1  None        True  None
--------------------------------------------------

TRAFO:
                  name std_type  hv_bus  lv_bus  sn_mva  vn_hv_kv  vn_lv_kv  vk_percent  vkr_percent  pfe_kw  i0_percent  shift_degree tap_side  tap_neutral  tap_min  tap_max  tap_step_percent  tap_step_degree  tap_pos tap_changer_type  id_characteristic_table  tap_dependency_table  parallel   df  in_service
0  MV/LV Transformer 2     None      15      16    10.0      15.0       0.4        0.01         0.01    0.01        0.01           0.0     None          NaN      NaN      NaN               NaN              NaN      NaN              NaN                     <NA>                 False         1  1.0        True
1  MV/LV Transformer 5     None      17      18    10.0      15.0       0.4        0.01         0.01    0.01        0.01           0.0     None          NaN      NaN      NaN               NaN              NaN      NaN              NaN                     <NA>                 False         1  1.0        True
2  Slack Transformer 0     None      19      20    40.0      70.0      15.0        0.01         0.01    0.01        0.01           0.0     None          NaN      NaN      NaN               NaN              NaN      NaN              NaN                     <NA>                 False         1  1.0        True
3  Slack Transformer 1     None      21      22    40.0      70.0      15.0        0.01         0.01    0.01        0.01           0.0     None          NaN      NaN      NaN               NaN              NaN      NaN              NaN                     <NA>                 False         1  1.0        True
--------------------------------------------------

RES_BUS:
       vm_pu  va_degree      p_mw    q_mvar
0   0.992863   0.131270  0.000872  0.000816
1   0.988192   0.225167  0.001508  0.002025
2   0.983880   0.324754  0.002010  0.003435
3   0.989068   0.208660  0.002532  0.003961
4   0.989312   0.177899  0.003256  0.004670
5   0.991800   0.171009  0.003377  0.006474
6   0.990241   0.168200  0.001129  0.000825
7   0.997460   0.019679  0.001904  0.001958
8   0.997798   0.027343  0.002593  0.002527
9   0.999829   0.001230  0.009466  0.011099
10  0.999835   0.001156  0.009332  0.010037
11  0.999853   0.000975  0.013559  0.008837
12  0.999779   0.001270  0.009850  0.006603
13  0.999754   0.001364  0.010812  0.009287
14  0.999762   0.001340  0.012844  0.010684
15  0.999930   0.000599  0.000000  0.000000
16  0.999930   0.000605  0.000000  0.000000
17  0.999784   0.001292  0.000000  0.000000
18  0.999784   0.001302  0.000000  0.000000
19  1.000000   0.000000 -0.039435 -0.045316
20  1.000000   0.000006  0.000000  0.000000
21  1.000000   0.000000 -0.045916 -0.048131
22  1.000000   0.000007  0.000000  0.000000
--------------------------------------------------

RES_LINE:
    p_from_mw  q_from_mvar   p_to_mw  q_to_mvar         pl_mw       ql_mvar  i_from_ka   i_to_ka      i_ka  vm_from_pu  va_from_degree  vm_to_pu  va_to_degree  loading_percent
0    0.039425     0.041316 -0.039422  -0.041314  3.190072e-06  2.487351e-06   0.002198  0.002198  0.002198    1.000000        0.000006  0.999930      0.000599         0.955700
1    0.045906     0.044131 -0.045896  -0.044123  1.090734e-05  8.504630e-06   0.002451  0.002451  0.002451    1.000000        0.000007  0.999784      0.001292         1.065649
2    0.032361     0.029975 -0.032358  -0.029973  2.691894e-06  2.098914e-06   0.001698  0.001698  0.001698    0.999930        0.000599  0.999853      0.000975         0.738232
3    0.009850     0.006603 -0.009850  -0.006603  4.865399e-08  3.793632e-08   0.000457  0.000457  0.000457    0.999784        0.001292  0.999779      0.001270         0.198497
4    0.023656     0.019972 -0.023656  -0.019971  5.243217e-07  4.088223e-07   0.001192  0.001192  0.001192    0.999784        0.001292  0.999762      0.001340         0.518212
5    0.007051     0.010339 -0.006978  -0.010282  7.326007e-05  5.712208e-05   0.018064  0.018064  0.018064    0.999930        0.000605  0.992863      0.131270         7.854020
6    0.004567     0.007346 -0.004509  -0.007301  5.807397e-05  4.528123e-05   0.012488  0.012488  0.012488    0.999784        0.001302  0.991800      0.171009         5.429534
7    0.001909     0.001962 -0.001904  -0.001958  5.063157e-06  3.947827e-06   0.003951  0.003951  0.003951    0.999784        0.001302  0.997460      0.019679         1.717968
8    0.005904     0.007240 -0.005889  -0.007229  1.501261e-05  1.170558e-05   0.013487  0.013487  0.013487    0.999784        0.001302  0.997798      0.027343         5.864005
9    0.009466     0.011099 -0.009466  -0.011099  7.361160e-08  5.739618e-08   0.000562  0.000562  0.000562    0.999835        0.001156  0.999829      0.001230         0.244156
10   0.018799     0.021136 -0.018798  -0.021135  3.914237e-07  3.051995e-07   0.001089  0.001089  0.001089    0.999853        0.000975  0.999835      0.001156         0.473434
11   0.010812     0.009287 -0.010812  -0.009287  9.940398e-08  7.750692e-08   0.000549  0.000549  0.000549    0.999762        0.001340  0.999754      0.001364         0.238582
12  -0.003533    -0.005472  0.003559   0.005492  2.570544e-05  2.004295e-05   0.009514  0.009514  0.009514    0.988192        0.225167  0.992863      0.131270         4.136574
13  -0.002532    -0.003961  0.002547   0.003973  1.508620e-05  1.176296e-05   0.006861  0.006861  0.006861    0.989068        0.208660  0.992863      0.131270         2.983018
14  -0.002010    -0.003435  0.002025   0.003447  1.480422e-05  1.154310e-05   0.005839  0.005839  0.005839    0.983880        0.324754  0.988192      0.225167         2.538736
15   0.003296     0.004702 -0.003256  -0.004670  4.029140e-05  3.141587e-05   0.008306  0.008306  0.008306    0.997798        0.027343  0.989312      0.177899         3.611240
16  -0.001129    -0.000825  0.001131   0.000827  1.737340e-06  1.354633e-06   0.002039  0.002039  0.002039    0.990241        0.168200  0.991800      0.171009         0.886501
--------------------------------------------------

RES_TRAFO:
    p_hv_mw  q_hv_mvar   p_lv_mw  q_lv_mvar    pl_mw  ql_mvar   i_hv_ka   i_lv_ka  vm_hv_pu  va_hv_degree  vm_lv_pu  va_lv_degree  loading_percent
0  0.007061   0.011339 -0.007051  -0.010339  0.00001    0.001  0.000514  0.018064  0.999930      0.000599  0.999930      0.000605         0.133585
1  0.012389   0.017548 -0.012379  -0.016548  0.00001    0.001  0.000827  0.029835  0.999784      0.001292  0.999784      0.001302         0.214852
2  0.039435   0.045316 -0.039425  -0.041316  0.00001    0.004  0.000495  0.002198  1.000000      0.000000  1.000000      0.000006         0.150181
3  0.045916   0.048131 -0.045906  -0.044131  0.00001    0.004  0.000549  0.002451  1.000000      0.000000  1.000000      0.000007         0.166301
--------------------------------------------------

RES_EXT_GRID:
       p_mw    q_mvar
0  0.039435  0.045316
1  0.045916  0.048131
--------------------------------------------------

RES_LOAD:
         p_mw    q_mvar
0   -0.000000  0.000000
1    0.000000  0.000000
2    0.000000  0.000000
3    0.000000  0.000000
4    0.000000  0.000000
5    0.000000  0.000000
6    0.000000  0.000000
7    0.000000  0.000000
8    0.000000  0.000000
9   -0.000000  0.000000
10  -0.000000  0.000000
11  -0.000000  0.000000
12  -0.000000  0.000000
13  -0.000000  0.000000
14  -0.000000  0.000000
15   0.000000  0.000000
16   0.000000  0.000000
17   0.000000  0.000000
18   0.000000  0.000000
19   0.000000  0.000000
20   0.000000  0.000000
21   0.000000  0.000000
22   0.000000  0.000000
23   0.000000  0.000000
24   0.000000  0.000000
25   0.000000  0.000000
26   0.000000  0.000000
27   0.000000  0.000000
28   0.000000  0.000000
29   0.000000  0.000000
30   0.000000  0.000000
31   0.000000  0.000000
32  -0.000000  0.000000
33  -0.000000  0.000000
34  -0.000000  0.000000
35  -0.000000  0.000000
36  -0.000000  0.000000
37  -0.000000  0.000000
38  -0.000000  0.000000
39   0.000000  0.000000
40   0.000000  0.000000
41   0.000000  0.000000
42   0.000000  0.000000
43   0.000000  0.000000
44   0.000000  0.000000
45   0.000000  0.000000
46   0.000000  0.000000
47   0.000872  0.000816
48  -0.000000  0.000000
49   0.000000  0.000000
50   0.000000  0.000000
51   0.000000  0.000000
52   0.000000  0.000000
53   0.000000  0.000000
54   0.000000  0.000000
55   0.000000  0.000000
56  -0.000000  0.000000
57  -0.000000  0.000000
58  -0.000000  0.000000
59  -0.000000  0.000000
60  -0.000000  0.000000
61  -0.000000  0.000000
62   0.000000  0.000000
63   0.000000  0.000000
64   0.000000  0.000000
65   0.000000  0.000000
66   0.000000  0.000000
67   0.000000  0.000000
68   0.000000  0.000000
69   0.000000  0.000000
70   0.000000  0.000000
71   0.000000  0.000000
72   0.000000  0.000000
73   0.000000  0.000000
74   0.000000  0.000000
75   0.000000  0.000000
76   0.000000  0.000000
77   0.000000  0.000000
78   0.000000  0.000000
79   0.000000  0.000000
80   0.000000  0.000000
81  -0.000000  0.000000
82  -0.000000  0.000000
83  -0.000000  0.000000
84  -0.000000  0.000000
85  -0.000000  0.000000
86   0.000000  0.000000
87   0.000000  0.000000
88   0.000000  0.000000
89   0.000000  0.000000
90   0.000000  0.000000
91   0.000000  0.000000
92   0.000000  0.000000
93   0.000000  0.000000
94   0.000000  0.000000
95   0.001508  0.002025
96  -0.000000  0.000000
97   0.000000  0.000000
98   0.000000  0.000000
99   0.000000  0.000000
100  0.000000  0.000000
101  0.000000  0.000000
102  0.000000  0.000000
103  0.000000  0.000000
104  0.000000  0.000000
105 -0.000000  0.000000
106 -0.000000  0.000000
107 -0.000000  0.000000
108 -0.000000  0.000000
109 -0.000000  0.000000
110  0.000000  0.000000
111  0.000000  0.000000
112  0.000000  0.000000
113  0.000000  0.000000
114  0.000000  0.000000
115  0.000000  0.000000
116  0.000000  0.000000
117  0.000000  0.000000
118  0.000000  0.000000
119  0.000000  0.000000
120  0.000000  0.000000
121  0.000000  0.000000
122  0.000000  0.000000
123  0.000000  0.000000
124  0.000000  0.000000
125  0.000000  0.000000
126  0.000000  0.000000
127  0.000000  0.000000
128  0.000000  0.000000
129 -0.000000  0.000000
130 -0.000000  0.000000
131 -0.000000  0.000000
132 -0.000000  0.000000
133 -0.000000  0.000000
134  0.000000  0.000000
135  0.000000  0.000000
136  0.000000  0.000000
137  0.000000  0.000000
138  0.000000  0.000000
139  0.000000  0.000000
140  0.000000  0.000000
141  0.000000  0.000000
142  0.000000  0.000000
143  0.002010  0.003435
144 -0.000000  0.000000
145  0.000000  0.000000
146  0.000000  0.000000
147  0.000000  0.000000
148  0.000000  0.000000
149  0.000000  0.000000
150  0.000000  0.000000
151  0.000000  0.000000
152  0.000000  0.000000
153 -0.000000  0.000000
154 -0.000000  0.000000
155 -0.000000  0.000000
156 -0.000000  0.000000
157 -0.000000  0.000000
158  0.000000  0.000000
159  0.000000  0.000000
160  0.000000  0.000000
161  0.000000  0.000000
162  0.000000  0.000000
163  0.000000  0.000000
164  0.000000  0.000000
165  0.000000  0.000000
166  0.000000  0.000000
167  0.000000  0.000000
168  0.000000  0.000000
169  0.000000  0.000000
170  0.000000  0.000000
171  0.000000  0.000000
172  0.000000  0.000000
173  0.000000  0.000000
174  0.000000  0.000000
175  0.000000  0.000000
176  0.000000  0.000000
177  0.000000  0.000000
178 -0.000000  0.000000
179 -0.000000  0.000000
180 -0.000000  0.000000
181  0.000000  0.000000
182  0.000000  0.000000
183  0.000000  0.000000
184  0.000000  0.000000
185  0.000000  0.000000
186  0.000000  0.000000
187  0.000000  0.000000
188  0.000000  0.000000
189  0.000000  0.000000
190  0.000000  0.000000
191  0.002532  0.003961
192 -0.000000  0.000000
193  0.000000  0.000000
194  0.000000  0.000000
195  0.000000  0.000000
196  0.000000  0.000000
197  0.000000  0.000000
198  0.000000  0.000000
199  0.000000  0.000000
...

BUS_GEODATA:
        x      y
0    11.0   48.0
1    25.0   38.0
2    51.0   42.0
3     0.0   64.0
4   129.0  138.0
5   105.0   88.0
6   130.0   92.0
7    81.0  115.0
8   103.0  114.0
9    10.0   70.0
10   20.0   80.0
11   40.0   80.0
12   90.0  120.0
13  120.0  120.0
14  120.0  100.0
15    0.0   40.0
16    0.5   39.5
17  100.0  110.0
18  100.5  109.5
19    0.0    0.0
20    0.5   -0.5
21  100.0    0.0
22  100.5   -0.5
--------------------------------------------------
